LTspice 26.0.1 for Windows
Circuit: D:\LTspice\1FILES\Precision Rectifier(half wave).net
Start Time: Thu Mar 19 08:30:05 2026
solver = Normal
Maximum thread count: 12
tnom = 27
temp = 27
method = trap
Direct Newton iteration succeeded in finding operating point.
Total elapsed time: 0.099 seconds.

Files loaded:
D:\LTspice\1FILES\Precision Rectifier(half wave).net
C:\Users\thang\AppData\Local\LTspice\lib\cmp\standard.dio
C:\Users\thang\AppData\Local\LTspice\lib\sub\UniversalOpAmp2.lib

